256
21.540000 21.540000 21.540000 
Ar 0.0000000000 0.0000000000 0.0000000000 40
Ar 0.0000000000 2.6925000000 2.6925000000 40
Ar 2.6925000000 0.0000000000 2.6925000000 40
Ar 2.6925000000 2.6925000000 0.0000000000 40
Ar 0.0000000000 0.0000000000 5.3850000000 40
Ar 0.0000000000 2.6925000000 8.0775000000 40
Ar 2.6925000000 0.0000000000 8.0775000000 40
Ar 2.6925000000 2.6925000000 5.3850000000 40
Ar 0.0000000000 0.0000000000 10.7700000000 40
Ar 0.0000000000 2.6925000000 13.4625000000 40
Ar 2.6925000000 0.0000000000 13.4625000000 40
Ar 2.6925000000 2.6925000000 10.7700000000 40
Ar 0.0000000000 0.0000000000 16.1550000000 40
Ar 0.0000000000 2.6925000000 18.8475000000 40
Ar 2.6925000000 0.0000000000 18.8475000000 40
Ar 2.6925000000 2.6925000000 16.1550000000 40
Ar 0.0000000000 5.3850000000 0.0000000000 40
Ar 0.0000000000 8.0775000000 2.6925000000 40
Ar 2.6925000000 5.3850000000 2.6925000000 40
Ar 2.6925000000 8.0775000000 0.0000000000 40
Ar 0.0000000000 5.3850000000 5.3850000000 40
Ar 0.0000000000 8.0775000000 8.0775000000 40
Ar 2.6925000000 5.3850000000 8.0775000000 40
Ar 2.6925000000 8.0775000000 5.3850000000 40
Ar 0.0000000000 5.3850000000 10.7700000000 40
Ar 0.0000000000 8.0775000000 13.4625000000 40
Ar 2.6925000000 5.3850000000 13.4625000000 40
Ar 2.6925000000 8.0775000000 10.7700000000 40
Ar 0.0000000000 5.3850000000 16.1550000000 40
Ar 0.0000000000 8.0775000000 18.8475000000 40
Ar 2.6925000000 5.3850000000 18.8475000000 40
Ar 2.6925000000 8.0775000000 16.1550000000 40
Ar 0.0000000000 10.7700000000 0.0000000000 40
Ar 0.0000000000 13.4625000000 2.6925000000 40
Ar 2.6925000000 10.7700000000 2.6925000000 40
Ar 2.6925000000 13.4625000000 0.0000000000 40
Ar 0.0000000000 10.7700000000 5.3850000000 40
Ar 0.0000000000 13.4625000000 8.0775000000 40
Ar 2.6925000000 10.7700000000 8.0775000000 40
Ar 2.6925000000 13.4625000000 5.3850000000 40
Ar 0.0000000000 10.7700000000 10.7700000000 40
Ar 0.0000000000 13.4625000000 13.4625000000 40
Ar 2.6925000000 10.7700000000 13.4625000000 40
Ar 2.6925000000 13.4625000000 10.7700000000 40
Ar 0.0000000000 10.7700000000 16.1550000000 40
Ar 0.0000000000 13.4625000000 18.8475000000 40
Ar 2.6925000000 10.7700000000 18.8475000000 40
Ar 2.6925000000 13.4625000000 16.1550000000 40
Ar 0.0000000000 16.1550000000 0.0000000000 40
Ar 0.0000000000 18.8475000000 2.6925000000 40
Ar 2.6925000000 16.1550000000 2.6925000000 40
Ar 2.6925000000 18.8475000000 0.0000000000 40
Ar 0.0000000000 16.1550000000 5.3850000000 40
Ar 0.0000000000 18.8475000000 8.0775000000 40
Ar 2.6925000000 16.1550000000 8.0775000000 40
Ar 2.6925000000 18.8475000000 5.3850000000 40
Ar 0.0000000000 16.1550000000 10.7700000000 40
Ar 0.0000000000 18.8475000000 13.4625000000 40
Ar 2.6925000000 16.1550000000 13.4625000000 40
Ar 2.6925000000 18.8475000000 10.7700000000 40
Ar 0.0000000000 16.1550000000 16.1550000000 40
Ar 0.0000000000 18.8475000000 18.8475000000 40
Ar 2.6925000000 16.1550000000 18.8475000000 40
Ar 2.6925000000 18.8475000000 16.1550000000 40
Ar 5.3850000000 0.0000000000 0.0000000000 40
Ar 5.3850000000 2.6925000000 2.6925000000 40
Ar 8.0775000000 0.0000000000 2.6925000000 40
Ar 8.0775000000 2.6925000000 0.0000000000 40
Ar 5.3850000000 0.0000000000 5.3850000000 40
Ar 5.3850000000 2.6925000000 8.0775000000 40
Ar 8.0775000000 0.0000000000 8.0775000000 40
Ar 8.0775000000 2.6925000000 5.3850000000 40
Ar 5.3850000000 0.0000000000 10.7700000000 40
Ar 5.3850000000 2.6925000000 13.4625000000 40
Ar 8.0775000000 0.0000000000 13.4625000000 40
Ar 8.0775000000 2.6925000000 10.7700000000 40
Ar 5.3850000000 0.0000000000 16.1550000000 40
Ar 5.3850000000 2.6925000000 18.8475000000 40
Ar 8.0775000000 0.0000000000 18.8475000000 40
Ar 8.0775000000 2.6925000000 16.1550000000 40
Ar 5.3850000000 5.3850000000 0.0000000000 40
Ar 5.3850000000 8.0775000000 2.6925000000 40
Ar 8.0775000000 5.3850000000 2.6925000000 40
Ar 8.0775000000 8.0775000000 0.0000000000 40
Ar 5.3850000000 5.3850000000 5.3850000000 40
Ar 5.3850000000 8.0775000000 8.0775000000 40
Ar 8.0775000000 5.3850000000 8.0775000000 40
Ar 8.0775000000 8.0775000000 5.3850000000 40
Ar 5.3850000000 5.3850000000 10.7700000000 40
Ar 5.3850000000 8.0775000000 13.4625000000 40
Ar 8.0775000000 5.3850000000 13.4625000000 40
Ar 8.0775000000 8.0775000000 10.7700000000 40
Ar 5.3850000000 5.3850000000 16.1550000000 40
Ar 5.3850000000 8.0775000000 18.8475000000 40
Ar 8.0775000000 5.3850000000 18.8475000000 40
Ar 8.0775000000 8.0775000000 16.1550000000 40
Ar 5.3850000000 10.7700000000 0.0000000000 40
Ar 5.3850000000 13.4625000000 2.6925000000 40
Ar 8.0775000000 10.7700000000 2.6925000000 40
Ar 8.0775000000 13.4625000000 0.0000000000 40
Ar 5.3850000000 10.7700000000 5.3850000000 40
Ar 5.3850000000 13.4625000000 8.0775000000 40
Ar 8.0775000000 10.7700000000 8.0775000000 40
Ar 8.0775000000 13.4625000000 5.3850000000 40
Ar 5.3850000000 10.7700000000 10.7700000000 40
Ar 5.3850000000 13.4625000000 13.4625000000 40
Ar 8.0775000000 10.7700000000 13.4625000000 40
Ar 8.0775000000 13.4625000000 10.7700000000 40
Ar 5.3850000000 10.7700000000 16.1550000000 40
Ar 5.3850000000 13.4625000000 18.8475000000 40
Ar 8.0775000000 10.7700000000 18.8475000000 40
Ar 8.0775000000 13.4625000000 16.1550000000 40
Ar 5.3850000000 16.1550000000 0.0000000000 40
Ar 5.3850000000 18.8475000000 2.6925000000 40
Ar 8.0775000000 16.1550000000 2.6925000000 40
Ar 8.0775000000 18.8475000000 0.0000000000 40
Ar 5.3850000000 16.1550000000 5.3850000000 40
Ar 5.3850000000 18.8475000000 8.0775000000 40
Ar 8.0775000000 16.1550000000 8.0775000000 40
Ar 8.0775000000 18.8475000000 5.3850000000 40
Ar 5.3850000000 16.1550000000 10.7700000000 40
Ar 5.3850000000 18.8475000000 13.4625000000 40
Ar 8.0775000000 16.1550000000 13.4625000000 40
Ar 8.0775000000 18.8475000000 10.7700000000 40
Ar 5.3850000000 16.1550000000 16.1550000000 40
Ar 5.3850000000 18.8475000000 18.8475000000 40
Ar 8.0775000000 16.1550000000 18.8475000000 40
Ar 8.0775000000 18.8475000000 16.1550000000 40
Ar 10.7700000000 0.0000000000 0.0000000000 40
Ar 10.7700000000 2.6925000000 2.6925000000 40
Ar 13.4625000000 0.0000000000 2.6925000000 40
Ar 13.4625000000 2.6925000000 0.0000000000 40
Ar 10.7700000000 0.0000000000 5.3850000000 40
Ar 10.7700000000 2.6925000000 8.0775000000 40
Ar 13.4625000000 0.0000000000 8.0775000000 40
Ar 13.4625000000 2.6925000000 5.3850000000 40
Ar 10.7700000000 0.0000000000 10.7700000000 40
Ar 10.7700000000 2.6925000000 13.4625000000 40
Ar 13.4625000000 0.0000000000 13.4625000000 40
Ar 13.4625000000 2.6925000000 10.7700000000 40
Ar 10.7700000000 0.0000000000 16.1550000000 40
Ar 10.7700000000 2.6925000000 18.8475000000 40
Ar 13.4625000000 0.0000000000 18.8475000000 40
Ar 13.4625000000 2.6925000000 16.1550000000 40
Ar 10.7700000000 5.3850000000 0.0000000000 40
Ar 10.7700000000 8.0775000000 2.6925000000 40
Ar 13.4625000000 5.3850000000 2.6925000000 40
Ar 13.4625000000 8.0775000000 0.0000000000 40
Ar 10.7700000000 5.3850000000 5.3850000000 40
Ar 10.7700000000 8.0775000000 8.0775000000 40
Ar 13.4625000000 5.3850000000 8.0775000000 40
Ar 13.4625000000 8.0775000000 5.3850000000 40
Ar 10.7700000000 5.3850000000 10.7700000000 40
Ar 10.7700000000 8.0775000000 13.4625000000 40
Ar 13.4625000000 5.3850000000 13.4625000000 40
Ar 13.4625000000 8.0775000000 10.7700000000 40
Ar 10.7700000000 5.3850000000 16.1550000000 40
Ar 10.7700000000 8.0775000000 18.8475000000 40
Ar 13.4625000000 5.3850000000 18.8475000000 40
Ar 13.4625000000 8.0775000000 16.1550000000 40
Ar 10.7700000000 10.7700000000 0.0000000000 40
Ar 10.7700000000 13.4625000000 2.6925000000 40
Ar 13.4625000000 10.7700000000 2.6925000000 40
Ar 13.4625000000 13.4625000000 0.0000000000 40
Ar 10.7700000000 10.7700000000 5.3850000000 40
Ar 10.7700000000 13.4625000000 8.0775000000 40
Ar 13.4625000000 10.7700000000 8.0775000000 40
Ar 13.4625000000 13.4625000000 5.3850000000 40
Ar 10.7700000000 10.7700000000 10.7700000000 40
Ar 10.7700000000 13.4625000000 13.4625000000 40
Ar 13.4625000000 10.7700000000 13.4625000000 40
Ar 13.4625000000 13.4625000000 10.7700000000 40
Ar 10.7700000000 10.7700000000 16.1550000000 40
Ar 10.7700000000 13.4625000000 18.8475000000 40
Ar 13.4625000000 10.7700000000 18.8475000000 40
Ar 13.4625000000 13.4625000000 16.1550000000 40
Ar 10.7700000000 16.1550000000 0.0000000000 40
Ar 10.7700000000 18.8475000000 2.6925000000 40
Ar 13.4625000000 16.1550000000 2.6925000000 40
Ar 13.4625000000 18.8475000000 0.0000000000 40
Ar 10.7700000000 16.1550000000 5.3850000000 40
Ar 10.7700000000 18.8475000000 8.0775000000 40
Ar 13.4625000000 16.1550000000 8.0775000000 40
Ar 13.4625000000 18.8475000000 5.3850000000 40
Ar 10.7700000000 16.1550000000 10.7700000000 40
Ar 10.7700000000 18.8475000000 13.4625000000 40
Ar 13.4625000000 16.1550000000 13.4625000000 40
Ar 13.4625000000 18.8475000000 10.7700000000 40
Ar 10.7700000000 16.1550000000 16.1550000000 40
Ar 10.7700000000 18.8475000000 18.8475000000 40
Ar 13.4625000000 16.1550000000 18.8475000000 40
Ar 13.4625000000 18.8475000000 16.1550000000 40
Ar 16.1550000000 0.0000000000 0.0000000000 40
Ar 16.1550000000 2.6925000000 2.6925000000 40
Ar 18.8475000000 0.0000000000 2.6925000000 40
Ar 18.8475000000 2.6925000000 0.0000000000 40
Ar 16.1550000000 0.0000000000 5.3850000000 40
Ar 16.1550000000 2.6925000000 8.0775000000 40
Ar 18.8475000000 0.0000000000 8.0775000000 40
Ar 18.8475000000 2.6925000000 5.3850000000 40
Ar 16.1550000000 0.0000000000 10.7700000000 40
Ar 16.1550000000 2.6925000000 13.4625000000 40
Ar 18.8475000000 0.0000000000 13.4625000000 40
Ar 18.8475000000 2.6925000000 10.7700000000 40
Ar 16.1550000000 0.0000000000 16.1550000000 40
Ar 16.1550000000 2.6925000000 18.8475000000 40
Ar 18.8475000000 0.0000000000 18.8475000000 40
Ar 18.8475000000 2.6925000000 16.1550000000 40
Ar 16.1550000000 5.3850000000 0.0000000000 40
Ar 16.1550000000 8.0775000000 2.6925000000 40
Ar 18.8475000000 5.3850000000 2.6925000000 40
Ar 18.8475000000 8.0775000000 0.0000000000 40
Ar 16.1550000000 5.3850000000 5.3850000000 40
Ar 16.1550000000 8.0775000000 8.0775000000 40
Ar 18.8475000000 5.3850000000 8.0775000000 40
Ar 18.8475000000 8.0775000000 5.3850000000 40
Ar 16.1550000000 5.3850000000 10.7700000000 40
Ar 16.1550000000 8.0775000000 13.4625000000 40
Ar 18.8475000000 5.3850000000 13.4625000000 40
Ar 18.8475000000 8.0775000000 10.7700000000 40
Ar 16.1550000000 5.3850000000 16.1550000000 40
Ar 16.1550000000 8.0775000000 18.8475000000 40
Ar 18.8475000000 5.3850000000 18.8475000000 40
Ar 18.8475000000 8.0775000000 16.1550000000 40
Ar 16.1550000000 10.7700000000 0.0000000000 40
Ar 16.1550000000 13.4625000000 2.6925000000 40
Ar 18.8475000000 10.7700000000 2.6925000000 40
Ar 18.8475000000 13.4625000000 0.0000000000 40
Ar 16.1550000000 10.7700000000 5.3850000000 40
Ar 16.1550000000 13.4625000000 8.0775000000 40
Ar 18.8475000000 10.7700000000 8.0775000000 40
Ar 18.8475000000 13.4625000000 5.3850000000 40
Ar 16.1550000000 10.7700000000 10.7700000000 40
Ar 16.1550000000 13.4625000000 13.4625000000 40
Ar 18.8475000000 10.7700000000 13.4625000000 40
Ar 18.8475000000 13.4625000000 10.7700000000 40
Ar 16.1550000000 10.7700000000 16.1550000000 40
Ar 16.1550000000 13.4625000000 18.8475000000 40
Ar 18.8475000000 10.7700000000 18.8475000000 40
Ar 18.8475000000 13.4625000000 16.1550000000 40
Ar 16.1550000000 16.1550000000 0.0000000000 40
Ar 16.1550000000 18.8475000000 2.6925000000 40
Ar 18.8475000000 16.1550000000 2.6925000000 40
Ar 18.8475000000 18.8475000000 0.0000000000 40
Ar 16.1550000000 16.1550000000 5.3850000000 40
Ar 16.1550000000 18.8475000000 8.0775000000 40
Ar 18.8475000000 16.1550000000 8.0775000000 40
Ar 18.8475000000 18.8475000000 5.3850000000 40
Ar 16.1550000000 16.1550000000 10.7700000000 40
Ar 16.1550000000 18.8475000000 13.4625000000 40
Ar 18.8475000000 16.1550000000 13.4625000000 40
Ar 18.8475000000 18.8475000000 10.7700000000 40
Ar 16.1550000000 16.1550000000 16.1550000000 40
Ar 16.1550000000 18.8475000000 18.8475000000 40
Ar 18.8475000000 16.1550000000 18.8475000000 40
Ar 18.8475000000 18.8475000000 16.1550000000 40